38
LJ 38 cluster
Ar     -4.54812496017749701E-01  1.97571353675022821E-01 -3.36414298869543715E-01
Ar      1.78223608137933698E-01 -8.39507115775265517E-02  1.26099281350290493E+00
Ar      1.60382263806286995E+00 -1.03805899702537419E+00  8.99683220887068091E-01
Ar     -9.64061524094459776E-01 -6.17842055554737257E-01  1.17129347062872952E-01
Ar     -1.27807954373351373E+00 -3.06118622760183090E-01 -8.66008675606284140E-01
Ar      7.34888243513310391E-01  1.49961708766009050E+00  8.72863651182235634E-01
Ar     -7.86697475044465078E-01  1.04531666181205862E+00  2.14023127874404873E+00
Ar      1.04491201499827335E+00  9.09882674167757921E-01 -4.65235595081582520E-01
Ar     -1.23823251800489875E+00 -1.42138534816273432E+00 -5.18376154623337304E-01
Ar     -6.46937128769099701E-01  1.93533442637090297E-01  7.01882023519483478E-01
Ar     -2.64211554886112532E-01 -8.47384350493818772E-01 -6.94503892264412892E-01
Ar      5.55886030582067647E-01 -6.55018744340267467E-02 -5.97690393754742311E-01
Ar      1.60559657348369789E+00 -5.22827079605978212E-02 -2.47486189042003285E-01
Ar      1.06462713734668268E+00 -4.73636511153031681E-01  1.73722729117647456E+00
Ar      1.02570429918421424E+00 -1.72053544594802155E-01  6.43908118186898082E-01
Ar     -1.46660143131413984E-01  9.63071961089484452E-01  1.25606646883875395E+00
Ar     -1.57368218586143360E+00 -3.04251700926330304E-01  9.69568554438976715E-01
Ar      9.53014001603372241E-01 -1.00837217013389813E+00 -5.87242508415204423E-02
Ar      2.73196597371002103E-01  1.63332094686516638E+00 -9.76167889316967574E-02
Ar      9.65093497608910389E-01  6.07232749696634433E-01  1.45577565493935523E+00
Ar      4.59420461792697712E-03 -7.62415633975971008E-01  2.06132364405435498E+00
Ar      4.94214598536069472E-01 -1.12664072424288708E+00  1.03426058078964211E+00
Ar     -8.02535340146451226E-01  1.76933020408985980E-02  1.75525872178961651E+00
Ar     -1.44012021702185433E+00 -1.42019207721579033E+00  6.27617132673034095E-01
Ar     -5.90074547557851714E-01 -8.55445649058093838E-01  1.11080146885771880E+00
Ar      1.50198210435957685E-01  3.98058347484738950E-01  2.21401910296384097E+00
Ar     -1.49368420525345980E+00  3.55333902241431743E-01  4.45249083442588664E-02
Ar      1.49963043243890981E+00  7.91211768152006889E-01  5.09690154153061070E-01
Ar      3.34110750314921656E-01  5.96467608778505243E-01  3.27974432612135269E-01
Ar     -3.29116089711596060E-01 -1.49982580627093287E+00  2.36794745394732914E-01
Ar      7.67306890049931911E-02 -4.90654051930770774E-01  2.78430953289209526E-01
Ar     -3.33303928797510474E-01  2.16052520338389856E-02 -1.39089876628250209E+00
Ar     -1.31788028188220219E+00  8.70829749317441948E-01  1.14834140310597399E+00
Ar     -1.09113447587303036E+00  8.33617978513168434E-01 -9.01859932414214360E-01
Ar     -2.01274664290794769E+00 -6.63694689501844182E-01 -4.63384141696590451E-02
Ar     -6.66601062152031409E-01  1.13458382311911454E+00  1.83352795141484365E-01
Ar      1.91930598810985265E+00  2.51409267715256256E-02  1.21637473218222381E+00
Ar      4.04785980435996284E-02  9.45426762376879726E-01 -9.06011359936624738E-01
