          38

 H  -0.711788E+00  -0.612030E+00  -0.971749E+00
 H  -0.747451E+00  -0.128177E+01  -0.543723E-01
 H  -0.156603E+01  -0.614739E+00  -0.261938E+00
 H  -0.103782E+01  -0.690120E+00   0.826299E+00
 H  -0.154736E+01   0.215216E+00   0.423641E+00
 H  -0.136435E+01   0.114971E+01   0.982690E+00
 H  -0.175291E+01   0.119905E+01  -0.124809E+00
 H  -0.388419E+00  -0.168149E+01  -0.100166E+01
 H   0.263384E+00  -0.303517E+00  -0.132538E+01
 H  -0.538928E+00  -0.179562E+00  -0.243771E-02
 H  -0.143474E+00   0.548389E+00  -0.724349E+00
 H  -0.593872E+00   0.281796E+00   0.102139E+01
 H  -0.765949E+00   0.878275E+00   0.121492E+00
 H  -0.964904E+00   0.192587E+01   0.264758E+00
 H   0.135832E+00  -0.196450E+01  -0.422826E-01
 H  -0.843350E-01  -0.543016E+00   0.155623E+01
 H   0.322715E+00  -0.463191E+00   0.558052E+00
 H   0.461740E+00   0.408272E+00   0.136416E+01
 H   0.200413E+00   0.587106E+00   0.343118E+00
 H  -0.264961E+00   0.133925E+01   0.994615E+00
 H  -0.123833E+01   0.355873E+00  -0.694796E+00
 H  -0.201051E+00  -0.139725E+01   0.872015E+00
 H   0.217315E+00  -0.945297E+00  -0.414068E+00
 H   0.687291E+00  -0.646914E-02  -0.358518E+00
 H   0.122532E+01   0.326080E+00   0.559583E+00
 H   0.976234E+00   0.525923E+00  -0.125300E+01
 H   0.824415E+00   0.135061E+01   0.783561E+00
 H  -0.803150E+00   0.144472E+01  -0.787218E+00
 H   0.849214E+00  -0.144173E+01   0.640843E+00
 H   0.581329E+00  -0.136219E+01  -0.138438E+01
 H   0.129014E+01  -0.615085E+00  -0.996835E+00
 H   0.173830E+01   0.250493E+00  -0.441178E+00
 H   0.971230E+00   0.104686E+01  -0.282505E+00
 H   0.323820E+00   0.144477E+01  -0.111162E+01
 H   0.460894E-01   0.158960E+01  -0.529695E-01
 H   0.111271E+01  -0.157369E+01  -0.434077E+00
 H   0.138253E+01  -0.660663E+00   0.130083E+00
 H   0.110507E+01  -0.531554E+00   0.127761E+01
