          38

 H  -0.572627E+00  -0.528046E+00  -0.119983E+01
 H  -0.416234E-01  -0.130118E+01  -0.577392E+00
 H  -0.128045E+01  -0.919699E+00  -0.432459E+00
 H  -0.126766E+01  -0.269852E+00   0.490629E+00
 H  -0.960529E+00   0.293396E+00   0.137964E+01
 H  -0.151305E+01   0.854818E+00   0.503902E+00
 H  -0.657096E+00   0.131657E+01   0.117137E+01
 H   0.122894E+01  -0.103238E+01  -0.489007E+00
 H   0.368095E+00  -0.100919E+01  -0.158617E+01
 H  -0.408474E+00  -0.359611E+00  -0.164401E+00
 H  -0.942563E+00   0.438708E+00  -0.155670E+01
 H  -0.142762E+00  -0.325955E+00   0.192933E+01
 H  -0.503242E+00   0.606209E+00   0.319599E+00
 H   0.157958E+00   0.147014E+01  -0.522383E+00
 H   0.323509E+00  -0.187352E+01   0.334706E+00
 H  -0.969683E+00  -0.860375E+00   0.139662E+01
 H  -0.228794E+00  -0.288488E+00   0.855870E+00
 H   0.117228E+01   0.637526E+00   0.893779E+00
 H   0.494158E+00   0.261145E+00   0.144019E+00
 H   0.147105E+00   0.582550E+00   0.133077E+01
 H  -0.124895E+01   0.251723E+00  -0.479151E+00
 H  -0.600760E+00  -0.124150E+01   0.410901E+00
 H   0.472031E+00  -0.810701E+00   0.256793E+00
 H  -0.212446E+00   0.492916E+00  -0.738994E+00
 H   0.144537E+01   0.967224E-01  -0.527030E+00
 H   0.133081E+00   0.104578E+00  -0.173514E+01
 H   0.114800E+01   0.109424E+01  -0.131160E+00
 H  -0.704340E+00   0.166958E+01   0.152167E+00
 H   0.111190E+00  -0.123817E+01   0.125550E+01
 H  -0.117271E+00   0.119339E+01  -0.157460E+01
 H   0.467799E+00  -0.324816E+00  -0.762036E+00
 H   0.119422E+01  -0.241235E+00  -0.155567E+01
 H   0.778291E+00   0.723602E+00  -0.110087E+01
 H  -0.954815E+00   0.127196E+01  -0.820490E+00
 H   0.302736E+00   0.130891E+01   0.547035E+00
 H   0.116752E+01  -0.134221E+01   0.887508E+00
 H   0.145028E+01  -0.360780E+00   0.432092E+00
 H   0.764578E+00  -0.340977E+00   0.126124E+01
