          38

 H  -0.109991E+01  -0.610553E+00  -0.118900E+01
 H  -0.624557E+00  -0.129439E+01  -0.443700E+00
 H  -0.145374E+01  -0.667046E+00  -0.124138E+00
 H  -0.107989E+01  -0.637168E+00   0.932104E+00
 H  -0.153107E+01   0.237918E+00   0.485172E+00
 H  -0.125821E+01   0.115324E+01   0.106043E+01
 H  -0.168957E+01   0.119079E+01  -0.734326E-01
 H   0.259821E+00  -0.158714E+01  -0.108572E+01
 H  -0.558687E+00   0.354338E+00  -0.154787E+01
 H  -0.439365E+00  -0.260734E+00   0.518532E-01
 H  -0.981198E-01   0.545939E+00  -0.612026E+00
 H  -0.483337E+00   0.264905E+00   0.107608E+01
 H  -0.707775E+00   0.845222E+00   0.194609E+00
 H  -0.886534E+00   0.190170E+01   0.278580E+00
 H   0.128934E+00  -0.208036E+01  -0.446269E-01
 H  -0.138007E+00  -0.665549E+00   0.157167E+01
 H   0.420800E+00  -0.422283E+00   0.691894E+00
 H   0.611867E+00   0.395647E+00   0.139389E+01
 H   0.284032E+00   0.590649E+00   0.390578E+00
 H  -0.152390E+00   0.136379E+01   0.997017E+00
 H  -0.117833E+01   0.302804E+00  -0.599510E+00
 H  -0.286397E+00  -0.128721E+01   0.635028E+00
 H   0.372284E+00  -0.104661E+01  -0.168129E+00
 H   0.683756E+00  -0.744003E-01  -0.300451E+00
 H   0.132485E+01   0.306513E+00   0.490088E+00
 H   0.711263E+00   0.289787E+00  -0.131421E+01
 H   0.946941E+00   0.137552E+01   0.655677E+00
 H  -0.805758E+00   0.135675E+01  -0.771439E+00
 H   0.811560E+00  -0.146631E+01   0.730656E+00
 H  -0.411317E-01  -0.486384E+00  -0.998640E+00
 H   0.106421E+01  -0.795906E+00  -0.996690E+00
 H   0.168369E+01   0.957565E-01  -0.610378E+00
 H   0.964552E+00   0.955220E+00  -0.414579E+00
 H   0.254356E+00   0.134132E+01  -0.122465E+01
 H   0.895406E-01   0.154288E+01  -0.111410E+00
 H   0.116434E+01  -0.173957E+01  -0.360459E+00
 H   0.140272E+01  -0.749920E+00   0.122573E+00
 H   0.133328E+01  -0.539127E+00   0.123315E+01
