          38

 H  -0.109839E+01  -0.852819E+00  -0.119715E+01
 H  -0.960712E+00  -0.113546E+01  -0.140391E+00
 H  -0.162249E+01  -0.320360E+00  -0.377520E+00
 H  -0.132415E+01  -0.464836E+00   0.702165E+00
 H  -0.162327E+01   0.511591E+00   0.318202E+00
 H  -0.136476E+01   0.140454E+01   0.928511E+00
 H  -0.164296E+01   0.148933E+01  -0.241777E+00
 H  -0.157764E+00  -0.143601E+01  -0.924960E+00
 H  -0.193649E+00  -0.308776E+00  -0.941663E+00
 H  -0.577777E+00  -0.341353E-01   0.362587E-01
 H  -0.575427E-01   0.734017E+00  -0.630455E+00
 H  -0.708203E+00   0.434036E+00   0.103160E+01
 H  -0.736998E+00   0.106263E+01   0.126716E+00
 H  -0.819292E+00   0.212808E+01   0.238150E+00
 H  -0.250805E+00  -0.196172E+01   0.963947E-01
 H  -0.512933E+00  -0.116425E+01   0.878000E+00
 H   0.194540E+00  -0.304863E+00   0.856530E+00
 H   0.352803E+00   0.625242E+00   0.149025E+01
 H   0.173791E+00   0.696097E+00   0.446812E+00
 H  -0.248518E+00   0.150353E+01   0.101871E+01
 H  -0.112492E+01   0.569933E+00  -0.754093E+00
 H   0.515660E+00  -0.153176E+01   0.803792E+00
 H   0.726075E-01  -0.931564E+00  -0.130079E-01
 H   0.536659E+00  -0.247631E-01  -0.188219E+00
 H   0.115399E+01   0.292128E+00   0.667893E+00
 H   0.804151E+00   0.324600E+00  -0.117180E+01
 H   0.887259E+00   0.139989E+01   0.812511E+00
 H  -0.648572E+00   0.164215E+01  -0.790878E+00
 H   0.157374E+01  -0.174881E+01   0.483210E+00
 H   0.771744E+00  -0.170568E+01  -0.279649E+00
 H   0.802432E+00  -0.791563E+00  -0.880244E+00
 H   0.157900E+01  -0.411211E-01  -0.402610E+00
 H   0.100161E+01   0.951619E+00  -0.239711E+00
 H   0.522808E+00   0.151419E+01  -0.108298E+01
 H   0.172430E+00   0.167379E+01  -0.284065E-01
 H   0.169444E+01  -0.227364E+01  -0.500036E+00
 H   0.175429E+01  -0.116099E+01  -0.468047E+00
 H   0.110975E+01  -0.764276E+00   0.317884E+00
